Info: SIMULATION PARAMETERS:
Info: TIMESTEP               1
Info: NUMBER OF STEPS        15000
Info: STEPS PER CYCLE        20
Info: PERIODIC CELL BASIS 1  91.14 0 0
Info: PERIODIC CELL BASIS 2  45.57 78.9296 0
Info: PERIODIC CELL BASIS 3  0 0 254.472
Info: PERIODIC CELL CENTER   0 0 0
Info: WRAPPING ALL CLUSTERS AROUND PERIODIC BOUNDARIES ON OUTPUT.
Info: WRAPPING TO IMAGE NEAREST TO PERIODIC CELL CENTER.
Info: FIRST LDB TIMESTEP     100
Info: LAST LDB TIMESTEP     -1
Info: HOM BACKGROUND SCALING 1
Info: PME BACKGROUND SCALING 1
Info: MIN ATOMS PER PATCH    40
Info: EMPTY PATCH LOAD       40 ATOMS
Info: INITIAL TEMPERATURE    295
Info: CENTER OF MASS MOVING INITIALLY? YES
Info: DIELECTRIC             1
Info: EXCLUDE                SCALED ONE-FOUR
Info: 1-4 ELECTROSTATICS SCALED BY 1
Info: MODIFIED 1-4 VDW PARAMETERS WILL BE USED
Info: DCD FILENAME           sin+dna_eq.dcd
Info: DCD FREQUENCY          5000
Info: DCD FIRST STEP         5000
Info: DCD FILE WILL CONTAIN UNIT CELL DATA
Info: XST FILENAME           sin+dna_eq.xst
Info: XST FREQUENCY          1000
Info: NO VELOCITY DCD OUTPUT
Info: NO FORCE DCD OUTPUT
Info: OUTPUT FILENAME        sin+dna_eq
Info: BINARY OUTPUT FILES WILL BE USED
Info: RESTART FILENAME       sin+dna_eq.restart
Info: RESTART FREQUENCY      5000
Info: BINARY RESTART FILES WILL BE USED
Info: SWITCHING ACTIVE
Info: SWITCHING ON           10
Info: SWITCHING OFF          12
Info: PAIRLIST DISTANCE      14
Info: PAIRLIST SHRINK RATE   0.01
Info: PAIRLIST GROW RATE     0.01
Info: PAIRLIST TRIGGER       0.3
Info: PAIRLISTS PER CYCLE    2
Info: PAIRLISTS ENABLED
Info: MARGIN                 0.99
Info: HYDROGEN GROUP CUTOFF  2.5
Info: PATCH DIMENSION        17.49
Info: ENERGY OUTPUT STEPS    1000
Info: ENERGY EVALUATION STEPS    1000
Info: OUTPUT ENERGY PRECISION 4
Info: CROSSTERM ENERGY INCLUDED IN DIHEDRAL
Info: TIMING OUTPUT STEPS    1000
Info: PRESSURE OUTPUT STEPS  1000
Info: HARMONIC CONSTRAINTS ACTIVE
Info: HARMONIC CONS EXP      2
Info: GRID FORCE ACTIVE
Info:  Please include this reference in published work using
Info:  the Gridforce module of NAMD: David Wells, Volha Abramkina,
Info:  and Aleksei Aksimentiev, J. Chem. Phys. 127:125101-10 (2007).
Info: MGRIDFORCE key BaseGridForceParams
Info:            Potfile specific2-2.dx
Info:            Scale 2 2 2
Info:            File specific.pdb
Info:            Col B
Info:            ChargeCol O
Info:            VOffset 0 0 0
Info:            Continuous K1 TRUE
Info:            Continuous K2 TRUE
Info:            Continuous K3 FALSE
Info:            Volts FALSE
Info:            Gridforce-CheckSize TRUE
Info: LANGEVIN DYNAMICS ACTIVE
Info: LANGEVIN TEMPERATURE   295
Info: LANGEVIN USING BBK INTEGRATOR
Info: LANGEVIN DAMPING COEFFICIENTS DETERMINED FROM FILES
Info: LANGEVIN DAMPING FILE:  sin+dna_langevin.pdb
Info: LANGEVIN DAMPING COLUMN:  B
Info: LANGEVIN PISTON PRESSURE CONTROL ACTIVE
Info:        TARGET PRESSURE IS 1.01325 BAR
Info:     OSCILLATION PERIOD IS 300 FS
Info:             DECAY TIME IS 300 FS
Info:     PISTON TEMPERATURE IS 295 K
Info:       PRESSURE CONTROL IS GROUP-BASED
Info:    INITIAL STRAIN RATE IS 0 0 0
Info:       CELL FLUCTUATION IS ANISOTROPIC
Info:     CONSTANT AREA PRESSURE CONTROL ACTIVE
Info: PARTICLE MESH EWALD (PME) ACTIVE
Info: PME TOLERANCE               1e-06
Info: PME EWALD COEFFICIENT       0.257952
Info: PME INTERPOLATION ORDER     4
Info: PME GRID DIMENSIONS         96 96 192
Info: PME MAXIMUM GRID SPACING    1.5
Info: PME CALCULATION WILL BE PERFORMED ON GPU
Info: FULL ELECTROSTATIC EVALUATION FREQUENCY      4
Info: USING VERLET I (r-RESPA) MTS SCHEME.
Info: C1 SPLITTING OF LONG RANGE ELECTROSTATICS
Info: PLACING ATOMS IN PATCHES BY HYDROGEN GROUPS
Info: NONBONDED FORCES EVALUATED EVERY 2 STEPS
Info: RANDOM NUMBER SEED     1744747598
Info: USE HYDROGEN BONDS?    NO
Info: COORDINATE PDB         sin+dna_ions.pdb
Info: STRUCTURE FILE         sin+dna_ions.psf
Info: PARAMETER file: CHARMM format!
Info: PARAMETERS             ../c32b1/toppar/par_all27_prot_na.prm
Info: PARAMETERS             silicon_nitride.par
Info: USING ARITHMETIC MEAN TO COMBINE L-J SIGMA PARAMETERS
Info: BINARY COORDINATES     sin+dna_min.restart.coor
Info: SUMMARY OF PARAMETERS:
Info: 258 BONDS
Info: 656 ANGLES
Info: 1127 DIHEDRAL
Info: 70 IMPROPER
Info: 6 CROSSTERM
Info: 165 VDW
Info: 0 VDW_PAIRS
Info: 0 NBTHOLE_PAIRS
Info: STRUCTURE SUMMARY:
Info: 172466 ATOMS
Info: 179351 BONDS
Info: 36168 ANGLES
Info: 559 DIHEDRALS
Info: 39 IMPROPERS
Info: 18 CROSSTERMS
Info: 0 EXCLUSIONS
Info: 63600 CONSTRAINTS
Info: 1 GRIDS ACTIVE
Info: 517398 DEGREES OF FREEDOM
Info: 100794 HYDROGEN GROUPS
Info: 4 ATOMS IN LARGEST HYDROGEN GROUP
Info: 100794 MIGRATION GROUPS
Info: 4 ATOMS IN LARGEST MIGRATION GROUP
Info: TOTAL MASS = 1.96901e+06 amu
Info: TOTAL CHARGE = 1.49012e-07 e
Info: MASS DENSITY = 1.78615 g/cm^3
Info: ATOM DENSITY = 0.0942139 atoms/A^3
Info: ADDED 1034020 IMPLICIT EXCLUSIONS
Info: NONBONDED TABLE R-SQUARED SPACING: 0.0625
Info: NONBONDED TABLE SIZE: 769 POINTS
Info: Use 3D box decompostion in PME FFT.
Info: Updated CUDA force table with 4096 elements.
Info: Updated CUDA LJ table with 165 x 165 elements.
Info: Found 8320 unique exclusion lists needing 8196172 bytes
ETITLE: TS BOND ANGLE DIHED IMPRP ELECT VDW BOUNDARY MISC KINETIC TOTAL TEMP POTENTIAL TOTAL3 TEMPAVG PRESSURE GPRESSURE VOLUME PRESSAVG GPRESSAVG
ENERGY: 0 31330.5034 11142.5010 98.0147 4.3705 -9018574.5008 -8729.7271 13743.9036 0.0000 151663.1418 -8819321.7930 295.0161 -8970984.9348 -8818644.8963 295.0161 -44569.7828 -46196.7266 1830579.8741 -44569.7828 -46196.7266
ENERGY: 3000 45983.7415 15688.6734 86.6650 5.3341 -8976110.9695 21816.2255 15299.2884 0.0000 111572.9991 -8765658.0426 217.0325 -8877231.0417 -8764506.0440 214.2690 -40121.9666 -42623.1805 1768767.6956 -41421.2154 -41419.9560
ENERGY: 6000 47642.8527 16369.1525 80.5152 6.2008 -8979806.1306 23130.1453 15437.0322 0.0000 115895.2222 -8761245.0097 225.4401 -8877140.2319 -8759971.7993 224.5801 -40578.1077 -42417.1166 1742432.3044 -41693.7586 -41694.1034
ENERGY: 9000 47614.2146 16711.8574 84.3161 4.5144 -8980125.1266 23160.8747 15623.1970 0.0000 117668.6705 -8759257.4818 228.8898 -8876926.1523 -8757989.6506 228.6116 -40051.6746 -42008.4691 1729862.7924 -41943.2756 -41943.0711
ENERGY: 12000 48511.8351 16744.5115 80.7609 7.2123 -8979446.6703 22327.1919 15346.4602 0.0000 119215.8708 -8757212.8277 231.8994 -8876428.6985 -8755917.5619 231.4436 -41128.3167 -43028.4227 1722497.0888 -42053.2442 -42053.4475
ENERGY: 15000 48445.3428 17143.2722 90.0431 6.5695 -8978616.0584 21922.6989 15427.8880 0.0000 120170.9116 -8755409.3323 233.7572 -8875580.2439 -8754124.3278 233.4508 -41228.9852 -43277.3699 1716418.9110 -42238.7143 -42238.4698
