Info: SIMULATION PARAMETERS:
Info: TIMESTEP               1
Info: NUMBER OF STEPS        2000
Info: STEPS PER CYCLE        20
Info: PERIODIC CELL BASIS 1  91.14 0 0
Info: PERIODIC CELL BASIS 2  45.57 78.9296 0
Info: PERIODIC CELL BASIS 3  0 0 254.472
Info: PERIODIC CELL CENTER   0 0 0
Info: WRAPPING ALL CLUSTERS AROUND PERIODIC BOUNDARIES ON OUTPUT.
Info: WRAPPING TO IMAGE NEAREST TO PERIODIC CELL CENTER.
Info: FIRST LDB TIMESTEP     100
Info: LAST LDB TIMESTEP     -1
Info: HOM BACKGROUND SCALING 1
Info: PME BACKGROUND SCALING 1
Info: MIN ATOMS PER PATCH    40
Info: EMPTY PATCH LOAD       40 ATOMS
Info: INITIAL TEMPERATURE    0
Info: CENTER OF MASS MOVING INITIALLY? YES
Info: DIELECTRIC             1
Info: EXCLUDE                SCALED ONE-FOUR
Info: 1-4 ELECTROSTATICS SCALED BY 1
Info: MODIFIED 1-4 VDW PARAMETERS WILL BE USED
Info: DCD FILENAME           sin+dna_min.dcd
Info: DCD FREQUENCY          1000
Info: DCD FIRST STEP         1000
Info: DCD FILE WILL CONTAIN UNIT CELL DATA
Info: XST FILENAME           sin+dna_min.xst
Info: XST FREQUENCY          1000
Info: NO VELOCITY DCD OUTPUT
Info: NO FORCE DCD OUTPUT
Info: OUTPUT FILENAME        sin+dna_min
Info: BINARY OUTPUT FILES WILL BE USED
Info: RESTART FILENAME       sin+dna_min.restart
Info: RESTART FREQUENCY      1000
Info: BINARY RESTART FILES WILL BE USED
Info: SWITCHING ACTIVE
Info: SWITCHING ON           10
Info: SWITCHING OFF          12
Info: PAIRLIST DISTANCE      14
Info: PAIRLIST SHRINK RATE   0.01
Info: PAIRLIST GROW RATE     0.01
Info: PAIRLIST TRIGGER       0.3
Info: PAIRLISTS PER CYCLE    2
Info: PAIRLISTS ENABLED
Info: MARGIN                 0
Info: HYDROGEN GROUP CUTOFF  2.5
Info: PATCH DIMENSION        16.5
Info: ENERGY OUTPUT STEPS    1000
Info: ENERGY EVALUATION STEPS    1000
Info: OUTPUT ENERGY PRECISION 4
Info: CROSSTERM ENERGY INCLUDED IN DIHEDRAL
Info: TIMING OUTPUT STEPS    1000
Info: PRESSURE OUTPUT STEPS  1000
Info: HARMONIC CONSTRAINTS ACTIVE
Info: HARMONIC CONS EXP      2
Info: GRID FORCE ACTIVE
Info:  Please include this reference in published work using
Info:  the Gridforce module of NAMD: David Wells, Volha Abramkina,
Info:  and Aleksei Aksimentiev, J. Chem. Phys. 127:125101-10 (2007).
Info: MGRIDFORCE key BaseGridForceParams
Info:            Potfile specific2-2.dx
Info:            Scale 2 2 2
Info:            File specific.pdb
Info:            Col B
Info:            ChargeCol O
Info:            VOffset 0 0 0
Info:            Continuous K1 TRUE
Info:            Continuous K2 TRUE
Info:            Continuous K3 FALSE
Info:            Volts FALSE
Info:            Gridforce-CheckSize TRUE
Info: CONJUGATE GRADIENT MINIMIZATION ACTIVE
Info: LINE MINIMIZATION GOAL = 0.001
Info: BABY STEP SIZE = 0.01
Info: TINY STEP SIZE = 1e-06
Info: PARTICLE MESH EWALD (PME) ACTIVE
Info: PME TOLERANCE               1e-06
Info: PME EWALD COEFFICIENT       0.257952
Info: PME INTERPOLATION ORDER     4
Info: PME GRID DIMENSIONS         96 96 192
Info: PME MAXIMUM GRID SPACING    1.5
Info: PME CALCULATION WILL BE PERFORMED ON GPU
Info: FULL ELECTROSTATIC EVALUATION FREQUENCY      4
Info: USING VERLET I (r-RESPA) MTS SCHEME.
Info: C1 SPLITTING OF LONG RANGE ELECTROSTATICS
Info: PLACING ATOMS IN PATCHES BY HYDROGEN GROUPS
Info: NONBONDED FORCES EVALUATED EVERY 2 STEPS
Info: RANDOM NUMBER SEED     1744747564
Info: USE HYDROGEN BONDS?    NO
Info: COORDINATE PDB         sin+dna_ions.pdb
Info: STRUCTURE FILE         sin+dna_ions.psf
Info: PARAMETER file: CHARMM format!
Info: PARAMETERS             ../c32b1/toppar/par_all27_prot_na.prm
Info: PARAMETERS             silicon_nitride.par
Info: USING ARITHMETIC MEAN TO COMBINE L-J SIGMA PARAMETERS
Info: SUMMARY OF PARAMETERS:
Info: 258 BONDS
Info: 656 ANGLES
Info: 1127 DIHEDRAL
Info: 70 IMPROPER
Info: 6 CROSSTERM
Info: 165 VDW
Info: 0 VDW_PAIRS
Info: 0 NBTHOLE_PAIRS
Info: STRUCTURE SUMMARY:
Info: 172466 ATOMS
Info: 179351 BONDS
Info: 36168 ANGLES
Info: 559 DIHEDRALS
Info: 39 IMPROPERS
Info: 18 CROSSTERMS
Info: 0 EXCLUSIONS
Info: 63600 CONSTRAINTS
Info: 1 GRIDS ACTIVE
Info: 517398 DEGREES OF FREEDOM
Info: 100794 HYDROGEN GROUPS
Info: 4 ATOMS IN LARGEST HYDROGEN GROUP
Info: 100794 MIGRATION GROUPS
Info: 4 ATOMS IN LARGEST MIGRATION GROUP
Info: TOTAL MASS = 1.96901e+06 amu
Info: TOTAL CHARGE = 1.49012e-07 e
Info: MASS DENSITY = 1.78615 g/cm^3
Info: ATOM DENSITY = 0.0942139 atoms/A^3
Info: ADDED 1034020 IMPLICIT EXCLUSIONS
Info: NONBONDED TABLE R-SQUARED SPACING: 0.0625
Info: NONBONDED TABLE SIZE: 769 POINTS
Info: Use 3D box decompostion in PME FFT.
Info: Updated CUDA force table with 4096 elements.
Info: Updated CUDA LJ table with 165 x 165 elements.
Info: Found 8320 unique exclusion lists needing 8196172 bytes
ETITLE: TS BOND ANGLE DIHED IMPRP ELECT VDW BOUNDARY MISC KINETIC TOTAL TEMP POTENTIAL TOTAL3 TEMPAVG PRESSURE GPRESSURE VOLUME PRESSAVG GPRESSAVG
ENERGY: 0 36943.6721 7880.7256 97.7535 0.1278 -8652866.9824 34843994.9130 0.0000 0.0000 0.0000 26236050.2097 0.0000 26236050.2097 26236050.2097 0.0000 -177.1936 87642.1039 1830579.8741 -177.1936 87642.1039
ENERGY: 400 17385.4895 10621.7374 108.3278 1.5209 -8890399.4360 -40105.3674 7424.4804 0.0000 0.0000 -8894963.2475 0.0000 -8894963.2475 -8894963.2475 0.0000 677.8717 -14144.1541 1830579.8741 677.8717 -14144.1541
ENERGY: 800 21806.6168 10505.2045 106.6458 3.7187 -8942907.8136 -28356.2018 10616.5779 0.0000 0.0000 -8928225.2517 0.0000 -8928225.2517 -8928225.2517 0.0000 79.1451 -15820.7184 1830579.8741 79.1451 -15820.7184
ENERGY: 1200 30561.8216 11032.8052 110.0799 13.1446 -8990659.0049 -17612.3234 13423.6691 0.0000 0.0000 -8953129.8078 0.0000 -8953129.8078 -8953129.8078 0.0000 135.5597 -16830.8675 1830579.8741 135.5597 -16830.8675
ENERGY: 1600 30927.2323 11022.8816 100.9234 2.0285 -9007763.3968 -12451.8420 13550.7018 0.0000 0.0000 -8964611.4713 0.0000 -8964611.4713 -8964611.4713 0.0000 828.4371 -16575.5973 1830579.8741 828.4371 -16575.5973
ENERGY: 2000 31330.5018 11142.5006 98.0147 4.3705 -9018574.3538 -8729.8502 13743.9036 0.0000 0.0000 -8970984.9128 0.0000 -8970984.9128 -8970984.9128 0.0000 890.1583 -16781.7513 1830579.8741 890.1583 -16781.7513
